1,'GENROU',1,8.960,0.050,0.310,0.050,23.640,2.640,0.146,0.061,0.097,0.061,0.050,0.026,0.000,0.000,/USRWHT
1,'IEEET1',1,0.000,20.000,0.200,3.000,0.000,1.000,0.314,0.064,0.350,0.000,1.000,0.018,2.000,0.087,/USRWHT
1,'TGOV1',1,0.050,0.500,999999.000,-999999.000,4.000,6.000,0.000,/USRWHT
1,'STAB1',1,3.000,0.500,6.800,0.040,6.800,0.040,99999.000,/USRWHT
4,'GENROU',1,8.960,0.050,0.310,0.050,23.640,2.640,0.146,0.061,0.097,0.061,0.050,0.026,0.000,0.000,/USRWHT
4,'IEEET1',1,0.000,20.000,0.200,3.000,0.000,1.000,0.314,0.064,0.350,0.000,1.000,0.018,2.000,0.087,/USRWHT
4,'TGOV1',1,0.050,0.500,999999.000,-999999.000,4.000,6.000,0.000,/USRWHT
4,'STAB1',1,3.000,0.500,6.800,0.040,6.800,0.040,99999.000,/USRWHT
6,'GENROU',1,8.960,0.050,0.310,0.050,23.640,2.640,0.146,0.061,0.097,0.061,0.050,0.026,0.000,0.000,/USRWHT
6,'IEEET1',1,0.000,20.000,0.200,3.000,0.000,1.000,0.314,0.064,0.350,0.000,1.000,0.018,2.000,0.087,/USRWHT
6,'TGOV1',1,0.050,0.500,999999.000,-999999.000,4.000,6.000,0.000,/USRWHT
6,'STAB1',1,3.000,0.500,6.800,0.040,6.800,0.040,99999.000,/USRWHT
8,'GENROU',1,8.960,0.050,0.310,0.050,23.640,2.640,0.146,0.061,0.097,0.061,0.050,0.026,0.000,0.000,/USRWHT
8,'IEEET1',1,0.000,20.000,0.200,3.000,0.000,1.000,0.314,0.064,0.350,0.000,1.000,0.018,2.000,0.087,/USRWHT
8,'TGOV1',1,0.050,0.500,999999.000,-999999.000,4.000,6.000,0.000,/USRWHT
8,'STAB1',1,3.000,0.500,6.800,0.040,6.800,0.040,99999.000,/USRWHT
10,'GENROU',1,8.960,0.050,0.310,0.050,1891.200,211.200,0.146,0.061,0.097,0.061,0.050,0.026,0.000,0.000,/USRWHT
10,'IEEET1',1,0.000,20.000,0.200,3.000,0.000,1.000,0.314,0.064,0.350,0.000,1.000,0.018,2.000,0.087,/USRWHT
10,'TGOV1',1,0.050,0.500,999999.000,-999999.000,4.000,6.000,0.000,/USRWHT
10,'STAB1',1,3.000,0.500,6.800,0.040,6.800,0.040,99999.000,/USRWHT
12,'GENROU',1,8.960,0.050,0.310,0.050,23.640,2.640,0.146,0.061,0.097,0.061,0.050,0.026,0.000,0.000,/USRWHT
12,'IEEET1',1,0.000,20.000,0.200,3.000,0.000,1.000,0.314,0.064,0.350,0.000,1.000,0.018,2.000,0.087,/USRWHT
12,'TGOV1',1,0.050,0.500,999999.000,-999999.000,4.000,6.000,0.000,/USRWHT
12,'STAB1',1,3.000,0.500,6.800,0.040,6.800,0.040,99999.000,/USRWHT
15,'GENROU',1,8.960,0.050,0.310,0.050,23.640,2.640,0.146,0.061,0.097,0.061,0.050,0.026,0.000,0.000,/USRWHT
15,'IEEET1',1,0.000,20.000,0.200,3.000,0.000,1.000,0.314,0.064,0.350,0.000,1.000,0.018,2.000,0.087,/USRWHT
15,'TGOV1',1,0.050,0.500,999999.000,-999999.000,4.000,6.000,0.000,/USRWHT
15,'STAB1',1,3.000,0.500,6.800,0.040,6.800,0.040,99999.000,/USRWHT
18,'GENROU',1,8.960,0.050,0.310,0.050,23.640,2.640,0.146,0.061,0.097,0.061,0.050,0.026,0.000,0.000,/USRWHT
18,'IEEET1',1,0.000,20.000,0.200,3.000,0.000,1.000,0.314,0.064,0.350,0.000,1.000,0.018,2.000,0.087,/USRWHT
18,'TGOV1',1,0.050,0.500,999999.000,-999999.000,4.000,6.000,0.000,/USRWHT
18,'STAB1',1,3.000,0.500,6.800,0.040,6.800,0.040,99999.000,/USRWHT
19,'GENROU',1,8.960,0.050,0.310,0.050,23.640,2.640,0.146,0.061,0.097,0.061,0.050,0.026,0.000,0.000,/USRWHT
19,'IEEET1',1,0.000,20.000,0.200,3.000,0.000,1.000,0.314,0.064,0.350,0.000,1.000,0.018,2.000,0.087,/USRWHT
19,'TGOV1',1,0.050,0.500,999999.000,-999999.000,4.000,6.000,0.000,/USRWHT
19,'STAB1',1,3.000,0.500,6.800,0.040,6.800,0.040,99999.000,/USRWHT
24,'GENROU',1,8.960,0.050,0.310,0.050,23.640,2.640,0.146,0.061,0.097,0.061,0.050,0.026,0.000,0.000,/USRWHT
24,'IEEET1',1,0.000,20.000,0.200,3.000,0.000,1.000,0.314,0.064,0.350,0.000,1.000,0.018,2.000,0.087,/USRWHT
24,'TGOV1',1,0.050,0.500,999999.000,-999999.000,4.000,6.000,0.000,/USRWHT
24,'STAB1',1,3.000,0.500,6.800,0.040,6.800,0.040,99999.000,/USRWHT
25,'GENROU',1,8.960,0.050,0.310,0.050,945.600,105.600,0.146,0.061,0.097,0.061,0.050,0.026,0.000,0.000,/USRWHT
25,'IEEET1',1,0.000,20.000,0.200,3.000,0.000,1.000,0.314,0.064,0.350,0.000,1.000,0.018,2.000,0.087,/USRWHT
25,'TGOV1',1,0.050,0.500,999999.000,-999999.000,4.000,6.000,0.000,/USRWHT
25,'STAB1',1,3.000,0.500,6.800,0.040,6.800,0.040,99999.000,/USRWHT
26,'GENROU',1,8.960,0.050,0.310,0.050,945.600,105.600,0.146,0.061,0.097,0.061,0.050,0.026,0.000,0.000,/USRWHT
26,'IEEET1',1,0.000,20.000,0.200,3.000,0.000,1.000,0.314,0.064,0.350,0.000,1.000,0.018,2.000,0.087,/USRWHT
26,'TGOV1',1,0.050,0.500,999999.000,-999999.000,4.000,6.000,0.000,/USRWHT
26,'STAB1',1,3.000,0.500,6.800,0.040,6.800,0.040,99999.000,/USRWHT
27,'GENROU',1,8.960,0.050,0.310,0.050,23.640,2.640,0.146,0.061,0.097,0.061,0.050,0.026,0.000,0.000,/USRWHT
27,'IEEET1',1,0.000,20.000,0.200,3.000,0.000,1.000,0.314,0.064,0.350,0.000,1.000,0.018,2.000,0.087,/USRWHT
27,'TGOV1',1,0.050,0.500,999999.000,-999999.000,4.000,6.000,0.000,/USRWHT
27,'STAB1',1,3.000,0.500,6.800,0.040,6.800,0.040,99999.000,/USRWHT
31,'GENROU',1,8.960,0.050,0.310,0.050,23.640,2.640,0.146,0.061,0.097,0.061,0.050,0.026,0.000,0.000,/USRWHT
31,'IEEET1',1,0.000,20.000,0.200,3.000,0.000,1.000,0.314,0.064,0.350,0.000,1.000,0.018,2.000,0.087,/USRWHT
31,'TGOV1',1,0.050,0.500,999999.000,-999999.000,4.000,6.000,0.000,/USRWHT
31,'STAB1',1,3.000,0.500,6.800,0.040,6.800,0.040,99999.000,/USRWHT
32,'GENROU',1,8.960,0.050,0.310,0.050,23.640,2.640,0.146,0.061,0.097,0.061,0.050,0.026,0.000,0.000,/USRWHT
32,'IEEET1',1,0.000,20.000,0.200,3.000,0.000,1.000,0.314,0.064,0.350,0.000,1.000,0.018,2.000,0.087,/USRWHT
32,'TGOV1',1,0.050,0.500,999999.000,-999999.000,4.000,6.000,0.000,/USRWHT
32,'STAB1',1,3.000,0.500,6.800,0.040,6.800,0.040,99999.000,/USRWHT
34,'GENROU',1,8.960,0.050,0.310,0.050,23.640,2.640,0.146,0.061,0.097,0.061,0.050,0.026,0.000,0.000,/USRWHT
34,'IEEET1',1,0.000,20.000,0.200,3.000,0.000,1.000,0.314,0.064,0.350,0.000,1.000,0.018,2.000,0.087,/USRWHT
34,'TGOV1',1,0.050,0.500,999999.000,-999999.000,4.000,6.000,0.000,/USRWHT
34,'STAB1',1,3.000,0.500,6.800,0.040,6.800,0.040,99999.000,/USRWHT
36,'GENROU',1,8.960,0.050,0.310,0.050,23.640,2.640,0.146,0.061,0.097,0.061,0.050,0.026,0.000,0.000,/USRWHT
36,'IEEET1',1,0.000,20.000,0.200,3.000,0.000,1.000,0.314,0.064,0.350,0.000,1.000,0.018,2.000,0.087,/USRWHT
36,'TGOV1',1,0.050,0.500,999999.000,-999999.000,4.000,6.000,0.000,/USRWHT
36,'STAB1',1,3.000,0.500,6.800,0.040,6.800,0.040,99999.000,/USRWHT
40,'GENROU',1,8.960,0.050,0.310,0.050,23.640,2.640,0.146,0.061,0.097,0.061,0.050,0.026,0.000,0.000,/USRWHT
40,'IEEET1',1,0.000,20.000,0.200,3.000,0.000,1.000,0.314,0.064,0.350,0.000,1.000,0.018,2.000,0.087,/USRWHT
40,'TGOV1',1,0.050,0.500,999999.000,-999999.000,4.000,6.000,0.000,/USRWHT
40,'STAB1',1,3.000,0.500,6.800,0.040,6.800,0.040,99999.000,/USRWHT
42,'GENROU',1,8.960,0.050,0.310,0.050,23.640,2.640,0.146,0.061,0.097,0.061,0.050,0.026,0.000,0.000,/USRWHT
42,'IEEET1',1,0.000,20.000,0.200,3.000,0.000,1.000,0.314,0.064,0.350,0.000,1.000,0.018,2.000,0.087,/USRWHT
42,'TGOV1',1,0.050,0.500,999999.000,-999999.000,4.000,6.000,0.000,/USRWHT
42,'STAB1',1,3.000,0.500,6.800,0.040,6.800,0.040,99999.000,/USRWHT
46,'GENROU',1,8.960,0.050,0.310,0.050,23.640,2.640,0.146,0.061,0.097,0.061,0.050,0.026,0.000,0.000,/USRWHT
46,'IEEET1',1,0.000,20.000,0.200,3.000,0.000,1.000,0.314,0.064,0.350,0.000,1.000,0.018,2.000,0.087,/USRWHT
46,'TGOV1',1,0.050,0.500,999999.000,-999999.000,4.000,6.000,0.000,/USRWHT
46,'STAB1',1,3.000,0.500,6.800,0.040,6.800,0.040,99999.000,/USRWHT
49,'GENROU',1,8.960,0.050,0.310,0.050,945.600,105.600,0.146,0.061,0.097,0.061,0.050,0.026,0.000,0.000,/USRWHT
49,'IEEET1',1,0.000,20.000,0.200,3.000,0.000,1.000,0.314,0.064,0.350,0.000,1.000,0.018,2.000,0.087,/USRWHT
49,'TGOV1',1,0.050,0.500,999999.000,-999999.000,4.000,6.000,0.000,/USRWHT
49,'STAB1',1,3.000,0.500,6.800,0.040,6.800,0.040,99999.000,/USRWHT
54,'GENROU',1,8.960,0.050,0.310,0.050,23.640,2.640,0.146,0.061,0.097,0.061,0.050,0.026,0.000,0.000,/USRWHT
54,'IEEET1',1,0.000,20.000,0.200,3.000,0.000,1.000,0.314,0.064,0.350,0.000,1.000,0.018,2.000,0.087,/USRWHT
54,'TGOV1',1,0.050,0.500,999999.000,-999999.000,4.000,6.000,0.000,/USRWHT
54,'STAB1',1,3.000,0.500,6.800,0.040,6.800,0.040,99999.000,/USRWHT
55,'GENROU',1,8.960,0.050,0.310,0.050,23.640,2.640,0.146,0.061,0.097,0.061,0.050,0.026,0.000,0.000,/USRWHT
55,'IEEET1',1,0.000,20.000,0.200,3.000,0.000,1.000,0.314,0.064,0.350,0.000,1.000,0.018,2.000,0.087,/USRWHT
55,'TGOV1',1,0.050,0.500,999999.000,-999999.000,4.000,6.000,0.000,/USRWHT
55,'STAB1',1,3.000,0.500,6.800,0.040,6.800,0.040,99999.000,/USRWHT
56,'GENROU',1,8.960,0.050,0.310,0.050,23.640,2.640,0.146,0.061,0.097,0.061,0.050,0.026,0.000,0.000,/USRWHT
56,'IEEET1',1,0.000,20.000,0.200,3.000,0.000,1.000,0.314,0.064,0.350,0.000,1.000,0.018,2.000,0.087,/USRWHT
56,'TGOV1',1,0.050,0.500,999999.000,-999999.000,4.000,6.000,0.000,/USRWHT
56,'STAB1',1,3.000,0.500,6.800,0.040,6.800,0.040,99999.000,/USRWHT
59,'GENROU',1,8.960,0.050,0.310,0.050,23.640,2.640,0.146,0.061,0.097,0.061,0.050,0.026,0.000,0.000,/USRWHT
59,'IEEET1',1,0.000,20.000,0.200,3.000,0.000,1.000,0.314,0.064,0.350,0.000,1.000,0.018,2.000,0.087,/USRWHT
59,'TGOV1',1,0.050,0.500,999999.000,-999999.000,4.000,6.000,0.000,/USRWHT
59,'STAB1',1,3.000,0.500,6.800,0.040,6.800,0.040,99999.000,/USRWHT
61,'GENROU',1,8.960,0.050,0.310,0.050,23.640,2.640,0.146,0.061,0.097,0.061,0.050,0.026,0.000,0.000,/USRWHT
61,'IEEET1',1,0.000,20.000,0.200,3.000,0.000,1.000,0.314,0.064,0.350,0.000,1.000,0.018,2.000,0.087,/USRWHT
61,'TGOV1',1,0.050,0.500,999999.000,-999999.000,4.000,6.000,0.000,/USRWHT
61,'STAB1',1,3.000,0.500,6.800,0.040,6.800,0.040,99999.000,/USRWHT
62,'GENROU',1,8.960,0.050,0.310,0.050,23.640,2.640,0.146,0.061,0.097,0.061,0.050,0.026,0.000,0.000,/USRWHT
62,'IEEET1',1,0.000,20.000,0.200,3.000,0.000,1.000,0.314,0.064,0.350,0.000,1.000,0.018,2.000,0.087,/USRWHT
62,'TGOV1',1,0.050,0.500,999999.000,-999999.000,4.000,6.000,0.000,/USRWHT
62,'STAB1',1,3.000,0.500,6.800,0.040,6.800,0.040,99999.000,/USRWHT
65,'GENROU',1,8.960,0.050,0.310,0.050,945.600,105.600,0.146,0.061,0.097,0.061,0.050,0.026,0.000,0.000,/USRWHT
65,'IEEET1',1,0.000,20.000,0.200,3.000,0.000,1.000,0.314,0.064,0.350,0.000,1.000,0.018,2.000,0.087,/USRWHT
65,'TGOV1',1,0.050,0.500,999999.000,-999999.000,4.000,6.000,0.000,/USRWHT
65,'STAB1',1,3.000,0.500,6.800,0.040,6.800,0.040,99999.000,/USRWHT
66,'GENROU',1,8.960,0.050,0.310,0.050,945.600,105.600,0.146,0.061,0.097,0.061,0.050,0.026,0.000,0.000,/USRWHT
66,'IEEET1',1,0.000,20.000,0.200,3.000,0.000,1.000,0.314,0.064,0.350,0.000,1.000,0.018,2.000,0.087,/USRWHT
66,'TGOV1',1,0.050,0.500,999999.000,-999999.000,4.000,6.000,0.000,/USRWHT
66,'STAB1',1,3.000,0.500,6.800,0.040,6.800,0.040,99999.000,/USRWHT
69,'GENROU',1,8.960,0.050,0.310,0.050,1891.200,211.200,0.146,0.061,0.097,0.061,0.050,0.026,0.000,0.000,/USRWHT
69,'IEEET1',1,0.000,20.000,0.200,3.000,0.000,1.000,0.314,0.064,0.350,0.000,1.000,0.018,2.000,0.087,/USRWHT
69,'TGOV1',1,0.050,0.500,999999.000,-999999.000,4.000,6.000,0.000,/USRWHT
69,'STAB1',1,3.000,0.500,6.800,0.040,6.800,0.040,99999.000,/USRWHT
70,'GENROU',1,8.960,0.050,0.310,0.050,23.640,2.640,0.146,0.061,0.097,0.061,0.050,0.026,0.000,0.000,/USRWHT
70,'IEEET1',1,0.000,20.000,0.200,3.000,0.000,1.000,0.314,0.064,0.350,0.000,1.000,0.018,2.000,0.087,/USRWHT
70,'TGOV1',1,0.050,0.500,999999.000,-999999.000,4.000,6.000,0.000,/USRWHT
70,'STAB1',1,3.000,0.500,6.800,0.040,6.800,0.040,99999.000,/USRWHT
72,'GENROU',1,8.960,0.050,0.310,0.050,23.640,2.640,0.146,0.061,0.097,0.061,0.050,0.026,0.000,0.000,/USRWHT
72,'IEEET1',1,0.000,20.000,0.200,3.000,0.000,1.000,0.314,0.064,0.350,0.000,1.000,0.018,2.000,0.087,/USRWHT
72,'TGOV1',1,0.050,0.500,999999.000,-999999.000,4.000,6.000,0.000,/USRWHT
72,'STAB1',1,3.000,0.500,6.800,0.040,6.800,0.040,99999.000,/USRWHT
73,'GENROU',1,8.960,0.050,0.310,0.050,23.640,2.640,0.146,0.061,0.097,0.061,0.050,0.026,0.000,0.000,/USRWHT
73,'IEEET1',1,0.000,20.000,0.200,3.000,0.000,1.000,0.314,0.064,0.350,0.000,1.000,0.018,2.000,0.087,/USRWHT
73,'TGOV1',1,0.050,0.500,999999.000,-999999.000,4.000,6.000,0.000,/USRWHT
73,'STAB1',1,3.000,0.500,6.800,0.040,6.800,0.040,99999.000,/USRWHT
74,'GENROU',1,8.960,0.050,0.310,0.050,23.640,2.640,0.146,0.061,0.097,0.061,0.050,0.026,0.000,0.000,/USRWHT
74,'IEEET1',1,0.000,20.000,0.200,3.000,0.000,1.000,0.314,0.064,0.350,0.000,1.000,0.018,2.000,0.087,/USRWHT
74,'TGOV1',1,0.050,0.500,999999.000,-999999.000,4.000,6.000,0.000,/USRWHT
74,'STAB1',1,3.000,0.500,6.800,0.040,6.800,0.040,99999.000,/USRWHT
76,'GENROU',1,8.960,0.050,0.310,0.050,23.640,2.640,0.146,0.061,0.097,0.061,0.050,0.026,0.000,0.000,/USRWHT
76,'IEEET1',1,0.000,20.000,0.200,3.000,0.000,1.000,0.314,0.064,0.350,0.000,1.000,0.018,2.000,0.087,/USRWHT
76,'TGOV1',1,0.050,0.500,999999.000,-999999.000,4.000,6.000,0.000,/USRWHT
76,'STAB1',1,3.000,0.500,6.800,0.040,6.800,0.040,99999.000,/USRWHT
77,'GENROU',1,8.960,0.050,0.310,0.050,23.640,2.640,0.146,0.061,0.097,0.061,0.050,0.026,0.000,0.000,/USRWHT
77,'IEEET1',1,0.000,20.000,0.200,3.000,0.000,1.000,0.314,0.064,0.350,0.000,1.000,0.018,2.000,0.087,/USRWHT
77,'TGOV1',1,0.050,0.500,999999.000,-999999.000,4.000,6.000,0.000,/USRWHT
77,'STAB1',1,3.000,0.500,6.800,0.040,6.800,0.040,99999.000,/USRWHT
80,'GENROU',1,8.960,0.050,0.310,0.050,1891.200,211.200,0.146,0.061,0.097,0.061,0.050,0.026,0.000,0.000,/USRWHT
80,'IEEET1',1,0.000,20.000,0.200,3.000,0.000,1.000,0.314,0.064,0.350,0.000,1.000,0.018,2.000,0.087,/USRWHT
80,'TGOV1',1,0.050,0.500,999999.000,-999999.000,4.000,6.000,0.000,/USRWHT
80,'STAB1',1,3.000,0.500,6.800,0.040,6.800,0.040,99999.000,/USRWHT
85,'GENROU',1,8.960,0.050,0.310,0.050,23.640,2.640,0.146,0.061,0.097,0.061,0.050,0.026,0.000,0.000,/USRWHT
85,'IEEET1',1,0.000,20.000,0.200,3.000,0.000,1.000,0.314,0.064,0.350,0.000,1.000,0.018,2.000,0.087,/USRWHT
85,'TGOV1',1,0.050,0.500,999999.000,-999999.000,4.000,6.000,0.000,/USRWHT
85,'STAB1',1,3.000,0.500,6.800,0.040,6.800,0.040,99999.000,/USRWHT
87,'GENROU',1,8.960,0.050,0.310,0.050,23.640,2.640,0.146,0.061,0.097,0.061,0.050,0.026,0.000,0.000,/USRWHT
87,'IEEET1',1,0.000,20.000,0.200,3.000,0.000,1.000,0.314,0.064,0.350,0.000,1.000,0.018,2.000,0.087,/USRWHT
87,'TGOV1',1,0.050,0.500,999999.000,-999999.000,4.000,6.000,0.000,/USRWHT
87,'STAB1',1,3.000,0.500,6.800,0.040,6.800,0.040,99999.000,/USRWHT
89,'GENROU',1,8.960,0.050,0.310,0.050,2836.800,316.800,0.146,0.061,0.097,0.061,0.050,0.026,0.000,0.000,/USRWHT
89,'IEEET1',1,0.000,20.000,0.200,3.000,0.000,1.000,0.314,0.064,0.350,0.000,1.000,0.018,2.000,0.087,/USRWHT
89,'TGOV1',1,0.050,0.500,999999.000,-999999.000,4.000,6.000,0.000,/USRWHT
89,'STAB1',1,3.000,0.500,6.800,0.040,6.800,0.040,99999.000,/USRWHT
90,'GENROU',1,8.960,0.050,0.310,0.050,23.640,2.640,0.146,0.061,0.097,0.061,0.050,0.026,0.000,0.000,/USRWHT
90,'IEEET1',1,0.000,20.000,0.200,3.000,0.000,1.000,0.314,0.064,0.350,0.000,1.000,0.018,2.000,0.087,/USRWHT
90,'TGOV1',1,0.050,0.500,999999.000,-999999.000,4.000,6.000,0.000,/USRWHT
90,'STAB1',1,3.000,0.500,6.800,0.040,6.800,0.040,99999.000,/USRWHT
91,'GENROU',1,8.960,0.050,0.310,0.050,23.640,2.640,0.146,0.061,0.097,0.061,0.050,0.026,0.000,0.000,/USRWHT
91,'IEEET1',1,0.000,20.000,0.200,3.000,0.000,1.000,0.314,0.064,0.350,0.000,1.000,0.018,2.000,0.087,/USRWHT
91,'TGOV1',1,0.050,0.500,999999.000,-999999.000,4.000,6.000,0.000,/USRWHT
91,'STAB1',1,3.000,0.500,6.800,0.040,6.800,0.040,99999.000,/USRWHT
92,'GENROU',1,8.960,0.050,0.310,0.050,23.640,2.640,0.146,0.061,0.097,0.061,0.050,0.026,0.000,0.000,/USRWHT
92,'IEEET1',1,0.000,20.000,0.200,3.000,0.000,1.000,0.314,0.064,0.350,0.000,1.000,0.018,2.000,0.087,/USRWHT
92,'TGOV1',1,0.050,0.500,999999.000,-999999.000,4.000,6.000,0.000,/USRWHT
92,'STAB1',1,3.000,0.500,6.800,0.040,6.800,0.040,99999.000,/USRWHT
99,'GENROU',1,8.960,0.050,0.310,0.050,23.640,2.640,0.146,0.061,0.097,0.061,0.050,0.026,0.000,0.000,/USRWHT
99,'IEEET1',1,0.000,20.000,0.200,3.000,0.000,1.000,0.314,0.064,0.350,0.000,1.000,0.018,2.000,0.087,/USRWHT
99,'TGOV1',1,0.050,0.500,999999.000,-999999.000,4.000,6.000,0.000,/USRWHT
99,'STAB1',1,3.000,0.500,6.800,0.040,6.800,0.040,99999.000,/USRWHT
100,'GENROU',1,8.960,0.050,0.310,0.050,945.600,105.600,0.146,0.061,0.097,0.061,0.050,0.026,0.000,0.000,/USRWHT
100,'IEEET1',1,0.000,20.000,0.200,3.000,0.000,1.000,0.314,0.064,0.350,0.000,1.000,0.018,2.000,0.087,/USRWHT
100,'TGOV1',1,0.050,0.500,999999.000,-999999.000,4.000,6.000,0.000,/USRWHT
100,'STAB1',1,3.000,0.500,6.800,0.040,6.800,0.040,99999.000,/USRWHT
103,'GENROU',1,8.960,0.050,0.310,0.050,23.640,2.640,0.146,0.061,0.097,0.061,0.050,0.026,0.000,0.000,/USRWHT
103,'IEEET1',1,0.000,20.000,0.200,3.000,0.000,1.000,0.314,0.064,0.350,0.000,1.000,0.018,2.000,0.087,/USRWHT
103,'TGOV1',1,0.050,0.500,999999.000,-999999.000,4.000,6.000,0.000,/USRWHT
103,'STAB1',1,3.000,0.500,6.800,0.040,6.800,0.040,99999.000,/USRWHT
104,'GENROU',1,8.960,0.050,0.310,0.050,23.640,2.640,0.146,0.061,0.097,0.061,0.050,0.026,0.000,0.000,/USRWHT
104,'IEEET1',1,0.000,20.000,0.200,3.000,0.000,1.000,0.314,0.064,0.350,0.000,1.000,0.018,2.000,0.087,/USRWHT
104,'TGOV1',1,0.050,0.500,999999.000,-999999.000,4.000,6.000,0.000,/USRWHT
104,'STAB1',1,3.000,0.500,6.800,0.040,6.800,0.040,99999.000,/USRWHT
105,'GENROU',1,8.960,0.050,0.310,0.050,23.640,2.640,0.146,0.061,0.097,0.061,0.050,0.026,0.000,0.000,/USRWHT
105,'IEEET1',1,0.000,20.000,0.200,3.000,0.000,1.000,0.314,0.064,0.350,0.000,1.000,0.018,2.000,0.087,/USRWHT
105,'TGOV1',1,0.050,0.500,999999.000,-999999.000,4.000,6.000,0.000,/USRWHT
105,'STAB1',1,3.000,0.500,6.800,0.040,6.800,0.040,99999.000,/USRWHT
107,'GENROU',1,8.960,0.050,0.310,0.050,23.640,2.640,0.146,0.061,0.097,0.061,0.050,0.026,0.000,0.000,/USRWHT
107,'IEEET1',1,0.000,20.000,0.200,3.000,0.000,1.000,0.314,0.064,0.350,0.000,1.000,0.018,2.000,0.087,/USRWHT
107,'TGOV1',1,0.050,0.500,999999.000,-999999.000,4.000,6.000,0.000,/USRWHT
107,'STAB1',1,3.000,0.500,6.800,0.040,6.800,0.040,99999.000,/USRWHT
110,'GENROU',1,8.960,0.050,0.310,0.050,23.640,2.640,0.146,0.061,0.097,0.061,0.050,0.026,0.000,0.000,/USRWHT
110,'IEEET1',1,0.000,20.000,0.200,3.000,0.000,1.000,0.314,0.064,0.350,0.000,1.000,0.018,2.000,0.087,/USRWHT
110,'TGOV1',1,0.050,0.500,999999.000,-999999.000,4.000,6.000,0.000,/USRWHT
110,'STAB1',1,3.000,0.500,6.800,0.040,6.800,0.040,99999.000,/USRWHT
111,'GENROU',1,8.960,0.050,0.310,0.050,23.640,2.640,0.146,0.061,0.097,0.061,0.050,0.026,0.000,0.000,/USRWHT
111,'IEEET1',1,0.000,20.000,0.200,3.000,0.000,1.000,0.314,0.064,0.350,0.000,1.000,0.018,2.000,0.087,/USRWHT
111,'TGOV1',1,0.050,0.500,999999.000,-999999.000,4.000,6.000,0.000,/USRWHT
111,'STAB1',1,3.000,0.500,6.800,0.040,6.800,0.040,99999.000,/USRWHT
112,'GENROU',1,8.960,0.050,0.310,0.050,23.640,2.640,0.146,0.061,0.097,0.061,0.050,0.026,0.000,0.000,/USRWHT
112,'IEEET1',1,0.000,20.000,0.200,3.000,0.000,1.000,0.314,0.064,0.350,0.000,1.000,0.018,2.000,0.087,/USRWHT
112,'TGOV1',1,0.050,0.500,999999.000,-999999.000,4.000,6.000,0.000,/USRWHT
112,'STAB1',1,3.000,0.500,6.800,0.040,6.800,0.040,99999.000,/USRWHT
113,'GENROU',1,8.960,0.050,0.310,0.050,23.640,2.640,0.146,0.061,0.097,0.061,0.050,0.026,0.000,0.000,/USRWHT
113,'IEEET1',1,0.000,20.000,0.200,3.000,0.000,1.000,0.314,0.064,0.350,0.000,1.000,0.018,2.000,0.087,/USRWHT
113,'TGOV1',1,0.050,0.500,999999.000,-999999.000,4.000,6.000,0.000,/USRWHT
113,'STAB1',1,3.000,0.500,6.800,0.040,6.800,0.040,99999.000,/USRWHT
116,'GENROU',1,8.960,0.050,0.310,0.050,23.640,2.640,0.146,0.061,0.097,0.061,0.050,0.026,0.000,0.000,/USRWHT
116,'IEEET1',1,0.000,20.000,0.200,3.000,0.000,1.000,0.314,0.064,0.350,0.000,1.000,0.018,2.000,0.087,/USRWHT
116,'TGOV1',1,0.050,0.500,999999.000,-999999.000,4.000,6.000,0.000,/USRWHT
116,'STAB1',1,3.000,0.500,6.800,0.040,6.800,0.040,99999.000,/USRWHT
